%nprocshared=2
%mem=1GB
%chk=hbretohmb.chk
# opt=(calcfc,ts,maxcycle=500,maxstep=250,noeigen) freq m062x/6-31++g(d,p) geom=connectivity scf=(xqc,maxcycle=500)

Title Card Required

0 2
 C                 -0.98824100    0.22734400    0.00000200
 C                 -0.17521000    1.38324700   -0.00001600
 C                  1.18193900    1.19550300   -0.00002500
 C                  1.82096400   -0.03345400   -0.00001300
 C                  1.00168500   -1.18055000    0.00000600
 C                 -0.38038100   -1.04259600    0.00001200
 H                 -0.62442700    2.37400100   -0.00002400
 H                  1.47629900   -2.15756300    0.00001700
 H                 -1.02037500   -1.91891100    0.00002700
 C                 -2.45628500    0.37677300    0.00000900
 H                 -2.81704200    1.42804400    0.00002300
 O                 -3.25131600   -0.54798200    0.00003900
 O                  3.17091700   -0.19620200   -0.00002600
 H                  3.60192100    0.67030600    0.00000200
 C                  2.02123583    3.00405131   -0.00005246
 H                  2.46536914    2.00664211    0.09259445
 H                  0.93368701    2.87815129   -0.04532125
 H                  2.25177241    3.55463587    0.91884437
 C                  2.81474746    4.10477030   -1.85713539
 H                  2.38339439    5.02962772   -2.25617818
 H                  3.89358191    4.13522511   -2.04647966
 H                  2.40147054    3.27123845   -2.43600481

 1 2 1.5 6 1.5 10 1.0
 2 3 2.0 7 1.0
 3 4 2.0
 4 5 1.5 13 1.0
 5 6 1.5 8 1.0
 6 9 1.0
 7
 8
 9
 10 11 1.0 12 2.0
 11
 12
 13 14 1.0
 14
 15 16 1.0 17 1.0 18 1.0 19 0.5
 16
 17
 18
 19 20 1.0 21 1.0 22 1.0
 20
 21
 22

