%nprocshared=2
%mem=1GB
%chk=1.chk
# opt=(calcfc,ts,maxcycle=500,maxstep=250,noeigen) freq 6-31++g(d,p) geom=connectivity m062x scf=(xqc,maxcycle=500)

Title Card Required

0 2
 C                  1.36855400   -0.18452000    0.00023000
 C                  0.19393600   -0.91882400    0.00021800
 C                 -1.05631200   -0.28492100    0.00013400
 C                 -1.10172800    1.12068000    0.00000900
 C                  0.08733500    1.86726600    0.00003700
 C                  1.30583000    1.22123500    0.00014300
 H                  0.20980300   -2.00680200    0.00030500
 H                  0.01187800    2.94897400   -0.00005000
 H                  2.23570000    1.78213100    0.00015800
 C                  2.67706700   -0.87588500    0.00035700
 H                  2.62661900   -1.98351100   -0.00036100
 C                 -2.38785361   -2.16898769    0.00038117
 H                 -3.48891782   -2.02049615   -0.00000641
 H                 -3.03038200    1.29259200   -0.00051200
 O                  3.74320200   -0.30311900   -0.00045000
 O                 -2.24225800    1.84632500   -0.00012300
 O                 -1.95711625   -3.29986840   -0.00024704
 H                 -2.52138389   -0.40760914    0.00007912

 1 2 2.0 6 1.5 10 1.0
 2 3 1.5 7 1.0
 3 4 1.5 12 0.5
 4 5 1.5 16 1.0
 5 6 2.0 8 1.0
 6 9 1.0
 7
 8
 9
 10 11 1.0 15 2.0
 11
 12 13 1.0 17 2.0
 13
 14 16 1.0
 15
 16
 17
 18

