%nprocshared=2
%mem=1GB
%chk=gmertodbe.chk
# opt=(calcfc,ts,maxcycle=500,maxstep=250,noeigen) freq m062x/6-31++g(d,p) geom=connectivity scf=(xqc,maxcycle=500)

Title Card Required

0 2
 C                 -1.47557200   -0.32014500    0.00004500
 C                 -0.46015900    0.65920100    0.00036100
 C                  0.86707500    0.26602100    0.00040400
 C                  1.20201300   -1.11174600   -0.00002600
 C                  0.19857900   -2.07737300   -0.00021400
 C                 -1.13884500   -1.67915300   -0.00017800
 H                 -0.75439600    1.70236700    0.00051900
 H                  0.48226300   -3.12436500   -0.00047600
 H                 -1.92593000   -2.42856100   -0.00020100
 C                 -2.89040100    0.08518500   -0.00000900
 H                 -3.61497500   -0.75713000   -0.00020000
 C                  2.04648575    3.09254626   -0.00098147
 H                  1.56746796    3.50470002    0.89443072
 H                  3.10683611    3.34553047   -0.00021433
 H                  1.56892983    3.50302733   -0.89784740
 H                  3.05392600   -0.69040900    0.00019400
 O                 -3.28988400    1.24005000   -0.00001000
 O                  1.96034600    1.09440300    0.00088200
 O                  2.50408100   -1.49071800   -0.00016100
 C                  1.67061761    4.99578502   -0.00329790
 H                  0.68197242    5.40929837    0.15068884
 H                  2.41632356    5.07041666    0.77803314
 H                  1.91363328    4.50785468   -0.93870841

 1 2 1.5 6 1.5 10 1.0
 2 3 2.0 7 1.0
 3 4 1.5 18 1.0
 4 5 1.5 19 1.0
 5 6 1.5 8 1.0
 6 9 1.0
 7
 8
 9
 10 11 1.0 17 2.0
 11
 12 13 1.0 14 1.0 15 1.0 18 0.5
 13
 14
 15
 16 19 1.0
 17
 18
 19
 20 21 1.0 22 1.0 23 1.0
 21
 22
 23

