%chk=4hydroxy3methylbenzaldehyde.chk
# opt freq m062x/6-31++g(d,p) geom=connectivity

Title Card Required

0 1
 C                  3.38284084   -2.41118818   -1.23527607
 C                  4.77800084   -2.41118818   -1.23527607
 C                  5.47553884   -1.20343718   -1.23527607
 C                  4.77788484    0.00507182   -1.23647507
 C                  3.38305984    0.00499382   -1.23695407
 C                  2.68545884   -1.20321218   -1.23595807
 H                  5.32750884   -3.36370118   -1.23396107
 H                  2.83293784    0.95727482   -1.23790707
 H                  1.58585484   -1.20302918   -1.23613807
 C                  2.61290548   -3.74490447   -1.23464584
 H                  3.18829785   -4.48914252   -1.74448242
 C                  7.01553858   -1.20332514   -1.23438821
 H                  7.37177587   -1.79297519   -0.41566492
 H                  7.37276536   -1.61731814   -2.15411579
 H                  7.37207389   -0.19960421   -1.13276701
 H                  6.05509012    1.28815186   -2.01374690
 O                  1.56113867   -3.59986637   -1.79388687
 O                  5.49335291    1.24321779   -1.23655179

 1 2 1.5 6 1.5 10 1.0
 2 3 1.5 7 1.0
 3 4 1.5 12 1.0
 4 5 1.5 18 1.0
 5 6 1.5 8 1.0
 6 9 1.0
 7
 8
 9
 10 11 1.0 17 2.0
 11
 12 13 1.0 14 1.0 15 1.0
 13
 14
 15
 16 18 1.0
 17
 18

