%chk=4hydroxybenzaldehyde.chk
# opt freq m062x/6-31++g(d,p) geom=connectivity

Title Card Required

0 1
 C                 -0.56178952   -2.47984822   -0.02384964
 C                  0.83337048   -2.47984822   -0.02384964
 C                  1.53090848   -1.27209722   -0.02384964
 C                  0.83325448   -0.06358822   -0.02504864
 C                 -0.56157052   -0.06366622   -0.02552764
 C                 -1.25917152   -1.27187222   -0.02453164
 H                  1.38287848   -3.43236122   -0.02253464
 H                  2.63058848   -1.27201722   -0.02321564
 H                 -1.11169252    0.88861478   -0.02648064
 H                 -2.35877552   -1.27168922   -0.02471164
 C                 -1.33172488   -3.81356451   -0.02321942
 H                 -0.75633251   -4.55780256   -0.53305600
 H                  2.37680860    1.06565846    0.44817626
 O                 -2.38349169   -3.66852640   -0.58246044
 O                  1.54872255    1.17455775   -0.02512537

 1 2 1.5 6 1.5 11 1.0
 2 3 1.5 7 1.0
 3 4 1.5 8 1.0
 4 5 1.5 15 1.0
 5 6 1.5 9 1.0
 6 10 1.0
 7
 8
 9
 10
 11 12 1.0 14 2.0
 12
 13 15 1.0
 14
 15

