%chk=aldehyde.chk
# opt freq m062x/6-31++g(d,p) geom=connectivity

Title Card Required

0 2
 C                 -0.92789823   -0.25687476    0.18779425
 H                 -0.57122539    0.24752343   -0.68585726
 O                 -0.52789131    0.30880546    1.16759033

 1 2 1.0 3 2.0
 2
 3

