%chk=catechol.chk
# opt freq m062x/6-31++g(d,p) geom=connectivity

Title Card Required

0 1
 C                 -0.40504974   -3.96417773   -0.28794025
 C                  0.60726118   -3.80546798    0.65890147
 C                  1.09757430   -2.53244371    0.94911515
 C                  0.57636828   -1.41750496    0.29148880
 C                 -0.43536899   -1.57630215   -0.65545795
 C                 -0.92640713   -2.84968253   -0.94492963
 H                  1.89505133   -2.40720378    1.69586937
 H                  0.96316178   -0.41387622    0.52043529
 H                 -0.84634233   -0.69779722   -1.17392129
 H                 -1.72414481   -2.97460794   -1.69134591
 O                 -0.90812488   -5.26941780   -0.58486409
 H                 -1.59524592   -5.20388636   -1.25207493
 O                  1.14079470   -4.94822377    1.33295725
 H                  1.82275693   -4.66814175    1.94784063

 1 2 1.5 6 1.5 11 1.0
 2 3 1.5 13 1.0
 3 4 1.5 7 1.0
 4 5 1.5 8 1.0
 5 6 1.5 9 1.0
 6 10 1.0
 7
 8
 9
 10
 11 12 1.0
 12
 13 14 1.0
 14

