%chk=guaiacol.chk
# opt freq m062x/6-31++g(d,p) geom=connectivity

Title Card Required

0 1
 C                 -0.60521828   -3.90222745   -0.02447441
 C                  0.74868372   -3.87855186    0.31147241
 C                  1.43956359   -2.66728375    0.33860761
 C                  0.77680827   -1.47907802    0.02854461
 C                 -0.57665404   -1.50288092   -0.30777399
 C                 -1.26784047   -2.71448649   -0.33391161
 H                  2.50657165   -2.64846944    0.60400604
 H                  1.32176496   -0.52416421    0.04994959
 H                 -1.09926323   -0.56660597   -0.55219796
 H                 -2.33488120   -2.73298568   -0.59888496
 H                 -2.38656469   -5.06348876   -0.32994304
 C                  2.95185208   -4.88518207    0.98749925
 H                  3.45419562   -5.79352702    1.24723064
 H                  3.42697591   -4.44595795    0.13530237
 H                  2.99730884   -4.20425403    1.81161738
 O                 -1.36796352   -5.23974859   -0.05374724
 O                  1.47960548   -5.19002616    0.65409255

 1 2 1.5 6 1.5 16 1.0
 2 3 1.5 17 1.0
 3 4 1.5 7 1.0
 4 5 1.5 8 1.0
 5 6 1.5 9 1.0
 6 10 1.0
 7
 8
 9
 10
 11 16 1.0
 12 13 1.0 14 1.0 15 1.0 17 1.0
 13
 14
 15
 16
 17

