%chk=ethaner.chk
# opt freq m062x/6-31++g(d,p) geom=connectivity

Title Card Required

0 2
 C                 -3.39950353    0.40942927    0.00000000
 H                 -2.76863553    1.04029727    0.63086800
 H                 -4.03037153   -0.22143873    0.63086800
 H                 -2.76863553   -0.22143873   -0.63086800
 C                 -4.28862294    1.29854869   -0.88911941
 H                 -4.91807762    0.66768227   -1.52139916
 H                 -4.92090269    1.92800336   -0.25825300

 1 2 1.0 3 1.0 4 1.0 5 1.0
 2
 3
 4
 5 6 1.0 7 1.0
 6
 7

