%chk=r4.chk
# opt freq m062x/6-31++g(d,p) geom=connectivity

Title Card Required

0 2
 C                 -1.24950500    0.16416700    0.00010500
 C                 -0.20589300    1.10085000    0.00005200
 C                  1.13618900    0.71532500    0.00000900
 C                  1.41231800   -0.66690100    0.00001800
 C                  0.38254200   -1.62035800    0.00012100
 C                 -0.94044200   -1.20780900    0.00017900
 H                 -0.44829800    2.16209600    0.00004500
 H                  0.65023400   -2.67185100    0.00020100
 H                 -1.75168200   -1.92863100    0.00021000
 C                 -2.64668900    0.63131900   -0.00001400
 H                 -2.76704800    1.73704200    0.00037300
 O                 -3.63017300   -0.09183200   -0.00025400
 O                  2.68806300   -1.15278700   -0.00014500
 H                  3.30925312   -0.42085614    0.00010054

 1 2 1.5 6 1.5 10 1.0
 2 3 1.5 7 1.0
 3 4 1.5
 4 5 1.5 13 1.0
 5 6 2.0 8 1.0
 6 9 1.0
 7
 8
 9
 10 11 1.0 12 2.0
 11
 12
 13 14 1.0
 14

