%chk=methoxyl.chk
# opt freq m062x/6-31++g(d,p) geom=connectivity

Title Card Required

0 2
 C                 -2.71898115    0.72595627   -1.25740497
 H                 -3.07549441    0.22144436   -2.13105594
 H                 -3.07579514    1.73470984   -1.25750269
 H                 -1.64898117    0.72611259   -1.25730740
 O                 -3.19565607    0.05185402   -0.08981464

 1 2 1.0 3 1.0 4 1.0 5 1.0
 2
 3
 4
 5

