%chk=methylradical.chk
# opt freq m062x/6-31++g(d,p) geom=connectivity temperature=800

Title Card Required

0 2
 C                 -1.01010105    0.22727272    0.00000000
 H                 -0.65344663   -0.78153728    0.00000000
 H                 -0.65342821    0.73167091    0.87365150
 H                 -2.08010105    0.22728591    0.00000000

 1 2 1.0 3 1.0 4 1.0
 2
 3
 4

